14

O 2.6269368003 -0.1649017343 0.2906319054
H 3.5726329597 -0.0919125932 0.417577536
H 2.236299612 -0.4074942099 1.1554903136
O -0.2957447301 2.2818442104 -1.0883640144
H -0.401434527 3.2267699085 -0.9751633266
H -0.9442778382 1.8452533929 -0.5035904873
O 0.9872530733 -0.7113526353 2.3489311338
H 0.123469747 -0.5624771606 1.9115538881
H 0.8076634537 -1.0051071535 3.2422414833
O -0.3251102646 -1.3324131024 -2.1680653861
H -0.3571052311 -2.2343997539 -2.4893791372
H -0.9718202411 -1.2661911788 -1.439990372
Cl -1.3916879765 -0.1280514996 0.4583757759
Na 0.8488656586 0.2936895036 -1.0298138899
