6
# w2
O -0.06727450 -1.52918578 0.00000000
H 0.06805583 -0.56628036 0.00000000
H 0.82629909 -1.89520487 0.00000000
O 0.06336087 1.39379087 0.00000000
H -0.42571602 1.73043594 0.76340222
H -0.42571602 1.73043594 -0.76340222
9
#w3
O      0.94940616 -1.32038438  0.06901885
H     -0.02304596 -1.23196918  0.02106226
H      1.17673303 -1.97854995 -0.59966531
O     -1.61758121 -0.16505881 -0.05279770
H     -2.22157850 -0.07870373  0.69586747
H     -1.05795755  0.6355862  -0.01920747
O      0.66216724  1.48479604  0.05468686
H      1.07218359  2.02640316 -0.63123516
H      1.09399502  0.61119350 -0.01504812
12
# w4 min
O 1.95471041 -0.00112988 0.00928785
H 1.36098838 -0.78455141 -0.00622417
H 2.52381272 -0.13514917 0.77779721
O -1.95471041 0.00112988 0.00928785
H -1.36098838 0.78455141 -0.00622417
H -2.52381272 0.13514917 0.77779721
O -0.00112988 -1.95471041 -0.00928785
H -0.78455141 -1.36098838 0.00622417
H -0.13514917 -2.52381272 -0.77779721
O 0.00112988 1.95471041 -0.00928785
H 0.78455141 1.36098838 0.00622417
H 0.13514917 2.52381272 -0.77779721
15
# w5 min
O -0.59296157 -2.25662176 0.15170795
H -1.24111023 -1.52580017 0.03037050
H -0.86671674 -2.69814536 0.96546275
O -2.31314693 -0.14234530 -0.16992657
H -1.82168188 0.70566041 -0.08029468
H -2.78581819 -0.06577212 -1.00842482
O -0.86386126 2.17701624 0.08881109
H 0.10170770 1.99056341 0.07100830
H -1.00612287 2.68173816 0.89939352
O 1.79816525 1.47921932 -0.06782146
H 1.88865953 0.49900537 -0.06876959
H 2.48394414 1.79056697 0.53573710
O 1.95687955 -1.26367019 -0.06687052
H 1.05916294 -1.65396561 0.03625606
H 2.30778170 -1.67158416 -0.86882477
18
# w6 min
O -1.22192514 -1.90531150 -0.21831144
H -1.94970806 -2.52152463 -0.36789654
H -1.62939552 -1.00895480 -0.22517819
O 1.04637687 -1.13295004 1.45658111
H 1.42897982 -1.13757348 0.55267154
H 0.22407314 -1.63110000 1.30814557
O 0.26034352 1.42866464 1.49801350
H 0.59137094 0.49652671 1.60457322
H 0.47875020 1.88447663 2.32002539
O 1.36252391 -1.04490866 -1.33461434
H 0.48734391 -1.47004498 -1.31362353
H 1.15791861 -0.10613741 -1.49622451
O 0.58341922 1.77028882 -1.24951144
H 1.08164004 2.50915589 -1.62137895
H 0.65772581 1.86276678 -0.27756493
O -1.97606364 0.74640806 -0.17154161
H -1.51211727 1.15947803 -0.91783365
H -1.45543723 1.06499114 0.58880184
18
#w6 cage
O    -1.66100438 -0.88941190 -0.61874355
H    -1.16356283 -1.70985757 -0.40112989
H    -2.54802824 -1.17870650 -0.86557332
O    -0.74759769  0.79844320  1.59127475
H    -1.25379826  0.24713715  0.96713531
H     0.11956560  0.35684859  1.60517290
O     0.60261813  0.66269433 -1.60342685
H    -0.25934784  0.21177169 -1.55870320
H     0.40688735  1.56097110 -1.26686416
O     1.66625479 -0.56397705  0.55808487
H     2.61023644 -0.41234518  0.68959436
H     1.42291716 -0.07583300 -0.27131130
O     0.11793496 -2.82571085  0.17265515
H     0.51805744 -3.46631390 -0.42901717
H     0.82390302 -2.16772191  0.34894411
O     0.04553722  2.90139704 -0.02762267
H    -0.33430262  2.29420093  0.64582992
H    -0.53282142  3.67327327 -0.04121669
18
#w6 book
O    1.56068622 -0.12812180  0.88613059
H    1.52698548 -0.97048376  0.37030364
H    2.18729825 -0.28764086  1.60294612
O    1.20058661 -2.43241042 -0.49623707
H    0.21531313 -2.49121291 -0.52048627
H    1.47832322 -2.52834813 -1.41595374
O   -1.51245480 -2.26727911 -0.45096370
H   -2.08299189 -2.88888255  0.01780095
H   -1.58671910 -1.41888725  0.05058868
O   -1.40589604  2.47953145 -0.43912998
H   -0.43050812  2.54340228 -0.51184932
H   -1.67598782  3.29656474 -0.00125177
O    1.38350886  2.31499888 -0.46486898
H    1.55875947  1.45167655 -0.03765122
H    1.88494248  2.29473184 -1.28959874
O   -1.36860496  0.03998375  0.97301240
H   -0.41494211  0.05961837  1.16480800
H   -1.52641349  0.88577649  0.50610770
18
#w6 ring
O    2.72356500 -0.00007205 -0.13950078
H    2.22243290 -0.83964316 -0.02831926
H    3.23443602 -0.12519319 -0.94896865
O   -1.36172010  2.35871250 -0.13950078
H   -0.38406415  2.34450493 -0.02831926
H   -1.50879753  2.86370036 -0.94896865
O   -1.36184489 -2.35864045 -0.13950078
H   -1.83836876 -1.50486177 -0.02831926
H   -1.72563849 -2.73850717 -0.94896865
O   -2.72356500  0.00007205  0.13950078
H   -2.22243290  0.83964316  0.02831926
H   -3.23443602  0.12519319  0.94896865
O    1.36172010 -2.35871250  0.13950078
H    0.38406415 -2.34450493  0.02831926
H    1.50879753 -2.86370036  0.94896865
O    1.36184489  2.35864045  0.13950078
H    1.83836876  1.50486177  0.02831926
H    1.72563849  2.73850717  0.94896865
21
#N=7
O   1.0959 -1.2899 -1.3823
H   0.2881 -1.5745 -0.8628
H   1.2721 -2.0017 -2.0092
O   2.4705  0.0051  0.7217
H   2.2178 -0.6109  0.0056
H   2.4382  0.8626  0.2692
O   0.2004 -0.1647  2.2041
H   1.1018 -0.1042  1.8007
H   0.3421 -0.2160  3.1571
O  -0.9659 -1.8491  0.1756
H  -0.6926 -1.4332  1.0143
H  -1.7365 -1.3113 -0.1112
O  -1.0521  1.7741  0.4579
H  -0.3338  1.7927 -0.2038
H  -0.6757  1.2521  1.1903
O  -2.8183  0.0259 -0.6705
H  -3.7312  0.1736 -0.3987
H  -2.2992  0.7602 -0.2620
O   1.0728  1.4751 -1.4606
H   1.0080  1.9416 -2.3031
H   1.0110  0.5215 -1.6835
24
#Miliordos et al 2015 CCSD(T)/aVDZ opt
O  1.33007 -1.42591  1.33086
H  0.38004 -1.53578  1.52635 
H  1.50567 -0.48581  1.52635 
O -1.33007  1.42591  1.33086
H -0.38004  1.53578  1.52635 
H -1.50567  0.48581  1.52635 
O  1.52582  1.42326  1.36250
H  1.58850  1.48172  0.37386
H  2.18426  2.03744  1.70994 
O -1.52582 -1.42326  1.36250
H -1.58850 -1.48172  0.37386 
H -2.18426 -2.03744  1.70994 
O  1.42591  1.33007 -1.33086
H  0.48581  1.50567 -1.52635 
H  1.53578  0.38004 -1.52635 
O -1.42591 -1.33007 -1.33086 
H -0.48581 -1.50567 -1.52635 
H -1.53578 -0.38004 -1.52635 
O  1.42326 -1.52582 -1.36250 
H  1.48172 -1.58850 -0.37386 
H  2.03744 -2.18426 -1.70994 
O -1.42326  1.52582 -1.36250 
H -1.48172  1.58850 -0.37386 
H -2.03744  2.18426 -1.70994
24
#Miliordos et al 2015 CCSD(T)/aVDZ opt
O 0.00000 2.01292 -1.48237
H 0.76745 1.38619 -1.54002
H 0.18626 2.72258 -2.10944
O 0.00000 -2.01292 -1.48237
H -0.76745 -1.38619 -1.54002
H -0.18626 -2.72258 -2.10944
O 1.90821 0.11782 -1.37067
H 1.41431 -0.71046 -1.52218
H 2.14973 0.07551 -0.42566
O -1.90821 -0.11782 -1.37067
H -1.41431 0.71046 -1.52218
H -2.14973 -0.07551 -0.42566
O 2.01292 0.00000 1.48237
H 1.38619 -0.76745 1.54002
H 2.72258 -0.18626 2.10944
O -2.01292 0.00000 1.48237
H -1.38619 0.76745 1.54002
H -2.72258 0.18626 2.10944
O -0.11782 1.90821 1.37067
H 0.71046 1.41431 1.52218
H -0.07551 2.14973 0.42566
O 0.11782 -1.90821 1.37067
H -0.71046 -1.41431 1.52218
H 0.07551 -2.14973 0.42566
27
#w9 D2hDDh
O  -0.42490   1.08658  -2.04989
H   0.31469   1.45595  -1.51957
H  -1.22361   1.31780  -1.52874
O  -0.32301  -1.09160   2.06929
H  -0.30434  -0.09057   2.02022
H  -0.35840  -1.30643   3.01419
O  -2.40405  -1.36054   0.17957
H  -1.84344  -1.62818  -0.58146
H  -1.79609  -1.43955   0.94695
O  -0.41095  -1.58518  -1.80093
H  -0.45074  -1.98208  -2.68479
H  -0.36226  -0.59546  -1.95168
O   1.53889   2.00943  -0.21682
H   2.01082   2.83028  -0.42634
H   2.24378   1.30229  -0.15070
O  -2.46623   1.30005  -0.11346
H  -3.37502   1.63599  -0.15169
H  -2.54426   0.30584  -0.00378
O   3.31891   0.01188  -0.08276
H   3.87680  -0.04420   0.70781
H   2.72961  -0.79354  -0.03113
O  -0.40598   1.57669   1.79169
H  -1.21128   1.66821   1.23760
H   0.32329   1.84448   1.19140
O   1.57802  -2.03019   0.17164
H   0.97171  -2.01719  -0.59974
H   0.99309  -1.80066   0.92481
30
#N=10
O	-0.8375	2.3790	-1.2203
H	-1.1577	3.1171	-1.7532
H	-1.4923	1.6533	-1.3496
O	1.8109	1.3493	-1.3585
H	0.9241	1.7568	-1.3998
H	2.0630	1.4176	-0.4162
O	-2.4821	0.1901	-1.2921
H	-3.2536	0.0518	-1.8554
H	-1.9187	-0.6295	-1.4055
O	1.7442	-1.2856	-1.7566
H	1.7970	-0.2916	-1.7068
H	2.3332	-1.5473	-2.4746
O	2.1957	1.0870	1.4302
H	2.1301	0.0932	1.4013
H	2.9411	1.2857	2.0098
O	1.9180	-1.5442	1.0893
H	1.0171	-1.8597	1.3065
H	1.9758	-1.6398	0.1197
O	-2.1672	-0.0354	1.5997
H	-2.5036	0.0941	0.6952
H	-1.5713	0.7395	1.7323
O	-0.7780	-2.2815	1.4148
H	-1.1193	-2.9459	2.0257
H	-1.3171	-1.4550	1.5793
O	-0.9548	-1.9688	-1.3905
H	-0.0229	-1.7892	-1.6302
H	-0.9099	-2.2738	-0.4626
O	-0.4474	2.1202	1.6570
H	0.4816	1.8201	1.6940
H	-0.5575	2.4225	0.7383
33
# w11 434
O 1.92505127 -2.04798431 -1.40440686
H 2.64058782 -2.51595653 -1.84488942
H 1.88139718 -1.13738744 -1.79661449
O -0.85464742 2.72482765 -0.47526144
H 0.11475097 2.79185187 -0.56625335
H -1.10254701 1.93091033 -0.97714020
O 1.47355334 -1.62482719 1.43058431
H 1.75566066 -1.83657621 0.52439863
H 0.58767782 -2.01602054 1.51936928
O 1.46105425 0.41607168 -2.34430527
H 0.49421658 0.47738344 -2.36668100
H 1.74632888 1.11925523 -1.72623761
O -0.86663989 -2.37009892 -1.44424256
H 0.10220916 -2.45684350 -1.52448642
H -1.06883118 -2.64121028 -0.52899539
O -1.27357921 -2.54148462 1.33654542
H -1.71714404 -3.18704184 1.89468144
H -1.80983294 -1.70756174 1.36564528
O -2.56603202 -0.20862955 1.08262003
H -2.18348977 0.54051884 1.58009852
H -2.44185700 0.02291518 0.14936268
O -1.54698736 0.17704410 -1.78371084
H -2.17315785 0.22188141 -2.51433417
H -1.31055791 -0.79081100 -1.68027322
O -1.20616530 2.03535194 2.09278776
H -1.57222669 2.70824461 2.67481665
H -1.13091655 2.43624016 1.18842343
O 1.54980522 1.09759204 1.89186310
H 0.65845440 1.34353546 2.18962375
H 1.54810653 0.11771843 1.79542129
O 1.93570795 2.34604152 -0.38985900
H 2.67215369 2.96323209 -0.34789154
H 1.88299010 1.87967822 0.49761419
48
#antiboat
O 2.25210098 2.84056040 0.92304893
H 1.39578832 3.21902509 1.17712085
H 2.33152075 3.04792909 -0.02556499
O 1.53562449 -3.40611923 -0.56859309
H 0.66822245 -3.80077707 -0.37266191
H 1.89988991 -3.18845859 0.30374486
O -1.53180967 -0.14756412 -1.15854816
H -0.61468193 -0.46968625 -1.32384209
H -1.68242200 0.53723642 -1.83837343
O 1.32302871 1.22491043 -3.22690048
H 1.35898357 0.40314105 -2.70085385
H 0.37425760 1.38730070 -3.35447731
O -2.84964910 -2.33249819 -0.01250785
H -2.51750890 -1.58499355 -0.54372958
H -2.90496154 -1.97929205 0.89020977
O 2.18180178 -2.22978002 2.02800370
H 2.09539756 -1.27710474 1.79333913
H 2.95593569 -2.29420047 2.59477281
O -1.14674676 0.74999700 1.37742240
H -1.62853351 0.12172310 1.95149294
H -1.37869573 0.48504845 0.45632070
O 1.08905520 -0.84285044 -1.38427552
H 1.37480573 -0.43452864 -0.54059525
H 1.27588595 -1.80089180 -1.25153518
O -0.59014755 3.94791105 -1.43563633
H -0.67788378 3.82089295 -0.47489817
H 0.37058611 3.93927184 -1.59473366
O -0.39583744 -3.16110979 2.74443522
H -0.57814903 -3.72394523 1.97092729
H 0.51446824 -2.84248299 2.60680628
O -1.05170763 -4.29720530 0.24223566
H -1.43707979 -5.14381247 -0.00152548
H -1.75003325 -3.61646447 0.06166938
O 1.56694094 0.23052424 1.13004047
H 1.95324502 1.13868172 1.09685257
H 0.62237452 0.38648064 1.33864217
O 2.14241532 3.35942564 -1.86331283
H 2.82329713 3.82603724 -2.35677625
H 1.92705126 2.54786848 -2.39566049
O -1.46835692 1.95150418 -2.97430497
H -1.23528410 2.73602658 -2.41353934
H -2.11697557 2.26078928 -3.61323006
O -2.35233390 -1.36645175 2.67350585
H -1.61226516 -2.02028499 2.79167067
H -2.87988758 -1.41234273 3.47619725
O -0.57880712 3.39612680 1.36013950
H -0.90138737 2.47575415 1.48645192
H -1.05527016 3.93495342 1.99831743
48
#4444-a w16
O 1.38892565 -1.46762308 1.23268571
H 0.41155747 -1.49781827 1.32330395
H 1.64312804 -0.59993942 1.58839061
O -1.25151584 -4.45360125 0.99203764
H -0.26129804 -4.48213863 1.02153520
H -1.55889637 -5.20146917 1.51306229
O -1.47267790 1.59428835 -1.13047131
H -1.53851741 1.45304199 -0.16110702
H -1.68544084 2.53635267 -1.25508524
O 1.28677720 1.52143368 -1.26987226
H 1.56701218 0.66514060 -1.63354698
H 0.30678375 1.51097530 -1.33196500
O -1.33049084 -1.18230786 -1.54960470
H -1.61858295 -0.26500553 -1.68987719
H -0.35312914 -1.15437839 -1.64102129
O -1.26241181 -4.00861261 -1.83673593
H -1.53754144 -3.07921228 -1.89841173
H -1.44164243 -4.25580842 -0.91322957
O 1.21093806 4.33643855 -0.88135162
H 1.42240615 4.35925628 0.06780241
H 1.48252906 3.44991721 -1.17042117
O -1.36838757 -1.65250191 1.17403000
H -1.53786499 -2.60266020 1.30331133
H -1.46774465 -1.51410974 0.20710814
O 1.29899675 4.09959759 1.97084330
H 1.62572685 4.70639057 2.64189745
H 0.31041959 4.11489429 2.03969669
O 1.41758307 1.33424161 1.48534986
H 1.59337773 2.22807097 1.82937562
H 1.48432558 1.42859998 0.51038705
O 1.41383734 -4.04372504 -2.01354443
H 1.74466723 -4.63570064 -2.69573960
H 0.42507725 -4.09912573 -2.05284956
O -1.37770707 3.95560936 1.87466290
H -1.59511271 4.19427969 0.95715176
H -1.61256115 3.01581689 1.94473441
O -1.46953766 4.39795165 -0.95348204
H -0.48261719 4.46694182 -1.01235022
H -1.82264366 5.13115775 -1.46630718
O 1.43158385 -1.27640966 -1.52537571
H 1.63397288 -2.16204680 -1.87596011
H 1.53082304 -1.36800238 -0.55292919
O 1.42107591 -4.28318326 0.84025752
H 1.66423911 -3.38625949 1.12243388
H 1.60526484 -4.29743986 -0.11471606
O -1.33680161 1.12838877 1.59090362
H -1.58216060 0.19999582 1.73910461
H -0.35685210 1.14067010 1.65365674
48
#4444-b w16
O 1.41406651 1.47898306 1.34080339
H 1.49686076 1.45044122 0.36223864
H 1.62064251 2.40207704 1.57178605
O -1.41406651 -1.47898306 1.34080339
H -1.62064251 -2.40207704 1.57178605
H -1.49686076 -1.45044122 0.36223864
O 1.39000816 -4.15918450 1.27951492
H 0.45245028 -4.28804192 1.50630410
H 1.57669938 -3.23997897 1.53183841
O 1.33400994 -1.32197720 1.41420070
H 1.59995522 -0.42479230 1.67545887
H 0.35477253 -1.32600182 1.49428525
O -1.33400994 -1.32197720 -1.41420070
H -1.59995522 -0.42479230 -1.67545887
H -0.35477253 -1.32600182 -1.49428525
O 1.39000816 4.15918450 -1.27951492
H 0.45245028 4.28804192 -1.50630410
H 1.57669938 3.23997897 -1.53183841
O -1.45801073 4.28844406 -1.38716611
H -1.52043672 4.32892728 -0.39770335
H -2.05158507 4.96664049 -1.72209901
O 1.45801073 -4.28844406 -1.38716611
H 2.05158507 -4.96664049 -1.72209901
H 1.52043672 -4.32892728 -0.39770335
O -1.45801073 -4.28844406 1.38716611
H -1.52043672 -4.32892728 0.39770335
H -2.05158507 -4.96664049 1.72209901
O -1.39000816 4.15918450 1.27951492
H -0.45245028 4.28804192 1.50630410
H -1.57669938 3.23997897 1.53183841
O 1.41406651 -1.47898306 -1.34080339
H 1.49686076 -1.45044122 -0.36223864
H 1.62064251 -2.40207704 -1.57178605
O -1.41406651 1.47898306 -1.34080339
H -1.62064251 2.40207704 -1.57178605
H -1.49686076 1.45044122 -0.36223864
O 1.45801073 4.28844406 1.38716611
H 1.52043672 4.32892728 0.39770335
H 2.05158507 4.96664049 1.72209901
O -1.39000816 -4.15918450 -1.27951492
H -0.45245028 -4.28804192 -1.50630410
H -1.57669938 -3.23997897 -1.53183841
O 1.33400994 1.32197720 -1.41420070
H 1.59995522 0.42479230 -1.67545887
H 0.35477253 1.32600182 -1.49428525
O -1.33400994 1.32197720 1.41420070
H -0.35477253 1.32600182 1.49428525
H -1.59995522 0.42479230 1.67545887
48
#boat-a w16
O 0.12742587 1.14684972 -1.58027855
H -0.71725804 1.53849679 -1.87225414
H -0.00427839 0.17400371 -1.58650759
O 4.23247769 -0.26271901 -1.24153281
H 4.97071820 -0.25118561 -1.85737926
H 3.72092881 0.57286259 -1.40972697
O -2.42866591 2.23165734 -1.85770461
H -2.68572875 3.03888825 -2.31286191
H -2.49329627 2.42735616 -0.88330238
O -4.23429048 0.26350591 1.23919725
H -3.72176515 -0.57149271 1.40711309
H -4.97199711 0.25127986 1.85568760
O 2.76159464 2.38202662 1.41229013
H 3.27367235 1.54634517 1.57145967
H 3.16989060 3.05563656 1.96351943
O 2.52685413 -2.46453621 -0.77925849
H 1.63876110 -2.24899979 -1.11640748
H 3.10657890 -1.74710268 -1.09353796
O -2.52476503 2.46384789 0.77992184
H -1.63736906 2.24746385 1.11841417
H -3.10585832 1.74726359 1.09349706
O -2.76186721 -2.38048819 -1.41506704
H -3.27465488 -1.54522054 -1.57436672
H -3.16870741 -3.05438894 -1.96703452
O -2.79264028 -1.95698424 1.44172471
H -1.85687894 -1.75682833 1.63115432
H -2.78903010 -2.31202936 0.53726329
O 4.08043374 0.07727714 1.57432064
H 3.56805875 -0.70756435 1.83742253
H 4.32624834 -0.10262958 0.64945285
O -0.11657254 -1.55258996 -1.14833997
H -0.97416083 -1.94951222 -1.39379643
H -0.16336722 -1.46208551 -0.17107250
O 2.79243517 1.95862738 -1.44410922
H 1.85680583 1.75649358 -1.63217101
H 2.78916008 2.31417338 -0.53981244
O -4.08049979 -0.07673860 -1.57722005
H -3.56777805 0.70839215 -1.83878183
H -4.32866081 0.10305124 -0.65302683
O -0.12623544 -1.14911860 1.58450896
H 0.71887096 -1.54099591 1.87520218
H 0.00519896 -0.17621894 1.59153759
O 2.43054159 -2.23102984 1.85838070
H 2.49447002 -2.42706168 0.88398964
H 2.68572680 -3.03885326 2.31351095
O 0.11727910 1.55092462 1.15243575
H 0.97484648 1.94864826 1.39674109
H 0.16355228 1.45911335 0.17525371
48
#boat-b w16
O -0.01751003 0.57324467 -1.88041768
H -0.01751108 -0.35665916 -1.56650646
H -0.90246837 0.72841828 -2.26052768
O 2.71097789 -1.00764992 2.45358399
H 3.09534015 -1.23777582 3.30440251
H 3.21783614 -0.21737120 2.12750606
O -4.02892163 -1.12759782 -1.28466763
H -3.62475238 -0.42084147 -1.81843744
H -4.30212492 -0.67725294 -0.46594747
O -2.70489614 1.13452577 -2.41161539
H -2.80490665 1.64016854 -1.55956050
H -3.07513918 1.69287470 -3.10155962
O 0.03664207 -0.55693921 1.84970688
H 0.93075980 -0.69218392 2.21935237
H 0.01473738 0.37306246 1.53633606
O 4.03056616 1.01373901 1.34823247
H 3.52108782 1.81315481 1.12600448
H 4.30130959 0.65662728 0.48392614
O -2.50299851 -1.69239092 2.12640718
H -1.60149538 -1.32616615 2.19217772
H -2.45450324 -2.33052007 1.39511426
O 2.83814600 -2.26353612 -0.13873012
H 1.89981118 -2.28679177 -0.40279642
H 2.81341095 -2.05153923 0.80943801
O -2.41422835 -3.05294298 -0.41554159
H -2.72900063 -3.91966469 -0.68754806
H -3.03456612 -2.39268992 -0.82215919
O 2.51572336 1.77895474 -2.00085796
H 1.65242920 1.35219162 -2.14948842
H 3.13952890 1.04238433 -1.86803209
O 2.39416562 3.09450276 0.29558009
H 2.63524331 4.02187878 0.21438078
H 2.47045261 2.70530808 -0.61754650
O -0.11879678 1.86341209 0.55878718
H -0.04240713 1.45794065 -0.33375043
H 0.65744122 2.45057343 0.61803040
O -2.85689313 2.23501545 -0.00605384
H -1.95010988 2.26613499 0.34855418
H -3.33475390 1.59973201 0.55743665
O -4.23893656 0.12309170 1.25905612
H -4.96773943 0.22687949 1.87748583
H -3.61605528 -0.53030149 1.67465357
O 4.26737543 -0.27342457 -1.17162040
H 3.75296787 -1.06726027 -0.86827457
H 5.02174209 -0.61607661 -1.65929984
O 0.09017475 -1.84611053 -0.58022569
H -0.70280493 -2.41294365 -0.63476922
H 0.03166201 -1.43420184 0.31061075
51
# w17 sphere
O -0.01493103 -0.11597399 0.08504794
H -0.54830827 -0.79672051 0.54924004
H 0.26142249 0.50039437 0.79799914
O -1.40600079 -2.02486637 1.51449118
H -1.97744278 -2.38235975 0.80783724
H -0.70270740 -2.69031204 1.63619275
O 0.69995502 1.48523512 2.19778076
H 0.72668055 2.39089850 1.83196509
H 1.62972317 1.18983224 2.22697611
O 1.71882695 -1.36674740 -1.60938263
H 1.92559761 -0.71100080 -2.29699013
H 1.14742176 -0.86778248 -0.98574738
O -0.82892133 1.17597634 -2.17815471
H -0.53754194 0.70230668 -1.36963306
H -0.02586849 1.20790698 -2.72499002
O -2.62491952 -2.63028076 -0.89040553
H -3.36659624 -3.18288446 -1.15368648
H -2.87552044 -1.70311641 -1.15589515
O 3.22568486 0.51580834 1.60184690
H 3.15887363 -0.44655664 1.35468137
H 4.07147791 0.60462248 2.05102255
O 0.70024553 3.77012031 0.65875677
H -0.17945986 3.66970044 0.19378959
H 0.79432527 4.70654786 0.85464147
O -3.27899902 1.54471635 0.80788480
H -2.78624126 1.14871181 1.57540152
H -4.12274660 1.83521150 1.16718828
O -1.56776961 3.32426908 -0.57758859
H -2.20888987 2.82483943 -0.03976389
H -1.33373669 2.69714016 -1.29006638
O 2.63519585 2.18068693 -0.67386812
H 2.92050546 1.60093117 0.05353762
H 2.01063301 2.80736955 -0.26724530
O -3.22522739 -0.12727675 -1.49339530
H -3.31981827 0.42898292 -0.69813308
H -2.51643255 0.30332052 -2.00099814
O 0.79609848 -3.71439238 1.25117393
H 0.54477356 -3.77685417 0.28988842
H 0.93625080 -4.61883181 1.54705505
O 1.89827284 1.08163047 -2.99757387
H 2.22210990 1.53460165 -2.17874904
H 2.42264308 1.43810302 -3.72002788
O -1.89000594 0.44196341 2.79825366
H -0.98912297 0.80774296 2.80111040
H -1.77219591 -0.48917214 2.54168817
O 0.04909521 -3.57372894 -1.29036379
H 0.60452184 -2.85690908 -1.64983740
H -0.86368532 -3.23847512 -1.32330854
O 3.05559597 -1.98916361 0.75928244
H 2.36653504 -2.59144463 1.08898534
H 2.80846963 -1.85697748 -0.17499773
60
#mp2/avtz edge-share pp
O     -1.39543275     2.31657627     1.37046631
H     -0.92662369     1.46817589     1.52206631
H     -2.32442996     2.12591716     1.59673517
O     -1.32982068     2.51637315    -1.37954570
H     -1.36882754     2.54005044    -0.39789671
H     -0.65200515     3.17800652    -1.61031691
O     -0.01733366    -0.02086307     1.42288405
H     -0.39379156    -0.91808476     1.55793838
H      0.95427978    -0.07116580     1.55922563
O      2.70141424     0.02680068     1.34938542
H      2.75656934     0.02328537     0.36773137
H      2.96101409     0.93225671     1.60318599
O     -4.03268277    -1.36044802    -1.47184098
H     -4.78522154    -1.60751488    -2.01683073
H     -3.97489677    -0.37132077    -1.52599292
O      0.89946758    -4.24052125     1.48696795
H      1.06572432    -5.00858815     2.04076342
H      1.73078849    -3.69863929     1.51444552
O      3.12169441    -2.79383799    -1.56662762
H      3.69601882    -3.27637364    -2.16793827
H      2.24825705    -3.26645164    -1.58986551
O     -0.08687104     0.08739608    -1.30493909
H     -0.52989350     0.93922436    -1.51509713
H     -0.08003457     0.07934656    -0.31956773
O     -1.39615176    -2.28999690    -1.40973862
H     -2.33616644    -2.12129946    -1.60528195
H     -0.96468677    -1.41450889    -1.52550547
O     -4.01405126     1.35720135     1.50706655
H     -4.75134581     1.59164800     2.07791242
H     -3.93675624     0.36921416     1.55883498
O      0.78524496    -4.05592492    -1.37112947
H      0.73646675    -4.29406759    -0.42971134
H     -0.02972066    -3.55028342    -1.54040588
O      2.63041510    -0.04600633    -1.40445880
H      2.89071090    -0.95485093    -1.64456265
H      1.65651502    -0.01485283    -1.52765948
O      3.13906504     2.71354684    -1.28081039
H      3.10239157     1.76228567    -1.48429784
H      3.32533139     2.75043550    -0.32691209
O     -1.23232183    -2.45173072     1.34110243
H     -0.60298141    -3.16346609     1.56144181
H     -1.30491352    -2.48082581     0.36147818
O      0.92255596     4.17488519    -1.52804515
H      1.11093701     4.93710992    -2.08306670
H      1.74878456     3.62425684    -1.53602828
O      3.11084510    -2.76903827     1.29472370
H      3.09043382    -1.82589836     1.53137113
H      3.30883978    -2.77464518     0.34210251
O     -3.90092000     1.30179294    -1.35091239
H     -3.09681655     1.79496369    -1.58474282
H     -4.03470630     1.48678957    -0.40518202
O      3.12357086     2.78007575     1.58228565
H      2.24950517     3.25165854     1.58673980
H      3.69419494     3.28034834     2.17303947
O      0.80305370     4.06443682     1.32921270
H     -0.02269679     3.58096491     1.50807247
H      0.76332278     4.27139378     0.37953183
O     -3.82938205    -1.29987979     1.37976151
H     -3.00615211    -1.77303605     1.58824604
H     -3.98755690    -1.48869245     0.43855016
60
#mp2/avtz face-sharing pp
O      0.52945249    -1.32341961    -2.30158189
H      0.57230430    -0.42717289    -2.66988776
H      1.20070409    -1.32066723    -1.58236699
O      1.15049608    -4.32687653     2.04924411
H      1.57542699    -5.00739601     2.57892027
H      1.60949740    -4.34253049     1.16189634
O      0.43806402    -4.20372761    -2.32782506
H      0.44787429    -3.28142680    -2.62541858
H     -0.45932379    -4.33561864    -1.97710108
O      2.35781728    -1.30466145    -0.25541273
H      2.72470105    -0.40693996    -0.27646674
H      1.86671290    -1.35451305     0.59543217
O      0.96735180    -1.54034611     2.09783423
H      0.00404971    -1.51159356     1.90135129
H      1.13621383    -2.47031437     2.33758076
O     -1.62143181    -4.23624316     1.51666252
H     -0.68246122    -4.36821795     1.74577177
H     -1.80536731    -3.31735200     1.76945516
O      2.31463680    -4.17464923    -0.30755498
H      1.67602063    -4.26997138    -1.04828109
H      2.63435439    -3.26358668    -0.39274644
O     -1.70526253    -1.39791294     1.52170484
H     -1.80917617    -1.40893550     0.54278325
H     -1.98575126    -0.50890908     1.79217826
O     -1.95876773    -1.53963091    -1.19559330
H     -1.06418216    -1.49619064    -1.60411429
H     -2.24140869    -2.46507811    -1.31525881
O     -2.14759768    -4.31870400    -1.09600433
H     -2.81592119    -4.98319666    -1.28498287
H     -1.97069280    -4.37663278    -0.12078047
O      0.47462142     4.36989186    -2.26500408
H      0.64332081     5.05859373    -2.91474547
H      1.15332550     4.48635526    -1.56420801
O      1.04744580     1.25382475     2.07656068
H      1.20137037     0.34809551     2.39608938
H      1.50864481     1.29478677     1.20898789
O      0.36246279     1.51681328    -2.28083815
H     -0.51589979     1.43165665    -1.84405298
H      0.40074983     2.44105957    -2.57548934
O      2.25856065     4.37564134    -0.17806446
H      1.75221775     4.32182058     0.68054568
H      2.95320011     5.02386318    -0.02770403
O      0.90843697     4.07580627     2.06792242
H     -0.05337760     4.21506749     1.98795378
H      1.00425702     3.15139572     2.35266656
O     -1.65298960     1.41022398     1.65281057
H     -0.68490739     1.37364478     1.82298417
H     -1.90699229     2.32674767     1.85706401
O      2.29898253     1.52003111    -0.34503957
H      2.58424894     2.44853098    -0.33251102
H      1.61192718     1.49454437    -1.04947491
O     -1.86712930     4.21917278     1.62359977
H     -2.47864145     4.86605383     1.98706675
H     -1.98950935     4.24471119     0.63900806
O     -2.09773771     4.06193394    -1.02689536
H     -2.29133429     3.12966308    -1.22336514
H     -1.26407666     4.24453134    -1.49235316
O     -2.05469277     1.24139297    -1.04290791
H     -2.34397200     0.33343012    -1.23979408
H     -1.92043436     1.25492362    -0.06791205
60
#mp2/avtz fused cubes
O     -0.00011170     1.89124892     5.56014624
H      0.79989605     1.35280911     5.68906262
H      0.06198380     2.20521176     4.64309683
O      2.01365707    -0.13154392     5.65472774
H      1.32913877    -0.84798431     5.70007128
H      2.66479384    -0.33786677     6.33131988
O      0.13154392     2.01365707    -5.65472774
H      0.33786677     2.66479384    -6.33131988
H      0.84798431     1.32913877    -5.70007128
O      1.89124892     0.00011170    -5.56014624
H      1.35280911    -0.79989605    -5.68906262
H      2.20521176    -0.06198380    -4.64309683
O      1.94859527     0.02560379    -2.73064080
H      2.31173867     0.01944289    -1.82913594
H      1.32886723     0.78738104    -2.74525907
O     -1.94859527    -0.02560379    -2.73064080
H     -2.31173867    -0.01944289    -1.82913594
H     -1.32886723    -0.78738104    -2.74525907
O      1.94851071     0.02903527     2.85767511
H      2.25842437    -0.00766951     3.78016786
H      1.32470791     0.78779803     2.83722371
O     -1.94851071    -0.02903527     2.85767511
H     -1.32470791    -0.78779803     2.83722371
H     -2.25842437     0.00766951     3.78016786
O      0.00011170    -1.89124892     5.56014624
H     -0.06198380    -2.20521176     4.64309683
H     -0.79989605    -1.35280911     5.68906262
O     -2.01365707     0.13154392     5.65472774
H     -1.32913877     0.84798431     5.70007128
H     -2.66479384     0.33786677     6.33131988
O     -0.13154392    -2.01365707    -5.65472774
H     -0.84798431    -1.32913877    -5.70007128
H     -0.33786677    -2.66479384    -6.33131988
O     -1.89124892    -0.00011170    -5.56014624
H     -1.35280911     0.79989605    -5.68906262
H     -2.20521176     0.06198380    -4.64309683
O     -1.95562639     0.07896636     0.06622882
H     -1.31495188     0.82267561     0.04672494
H     -2.30533139     0.08017087     0.97354165
O     -0.02560379     1.94859527     2.73064080
H     -0.01944289     2.31173867     1.82913594
H     -0.78738104     1.32886723     2.74525907
O     -0.02903527     1.94851071    -2.85767511
H     -0.78779803     1.32470791    -2.83722371
H      0.00766951     2.25842437    -3.78016786
O      0.02903527    -1.94851071    -2.85767511
H     -0.00766951    -2.25842437    -3.78016786
H      0.78779803    -1.32470791    -2.83722371
O      0.07896636     1.95562639    -0.06622882
H      0.82267561     1.31495188    -0.04672494
H      0.08017087     2.30533139    -0.97354165
O     -0.07896636    -1.95562639    -0.06622882
H     -0.08017087    -2.30533139    -0.97354165
H     -0.82267561    -1.31495188    -0.04672494
O      0.02560379    -1.94859527     2.73064080
H      0.01944289    -2.31173867     1.82913594
H      0.78738104    -1.32886723     2.74525907
O      1.95562639    -0.07896636     0.06622882
H      2.30533139    -0.08017087     0.97354165
H      1.31495188    -0.82267561     0.04672494
60
#mp2/avtz dodecahedron
O      2.21363671     3.19691705     0.68721850
H      1.48860041     3.23998239     1.35127815
H      2.75181797     3.98041800     0.83609425
O      3.65057365     0.72957220     0.88213303
H      3.18060821     1.57490928     0.79640718
H      3.59581278     0.30392539    -0.00375389
O      0.12378993     3.10718406     2.42529051
H     -0.02806528     3.77888401     3.09713154
H     -0.72822476     3.05806149     1.90367024
O      1.04255648     3.11293656    -1.89832518
H      1.49860445     3.10177065    -1.03934799
H      1.37545271     2.34187778    -2.39860402
O      2.66039031    -0.78644391     2.76500519
H      3.36310551    -0.92937961     3.40603010
H      3.06263115    -0.20906586     2.05191259
O      0.36138214     0.55170878     3.71095844
H      1.17914609     0.11628774     3.40878159
H      0.34157730     1.40897869     3.25477828
O      3.44677186    -0.54403736    -1.51310232
H      3.01239546    -1.40402339    -1.38931272
H      2.91496939    -0.07998757    -2.18428610
O     -2.09205528     2.96824738     1.03881140
H     -1.95886631     3.07079722     0.07599025
H     -2.61516021     2.15456166     1.14902557
O      1.84970876     0.88709177    -3.35373862
H      1.03290046     0.33689971    -3.53115236
H      2.23582115     1.05936690    -4.21764861
O     -1.57543181     3.18469944    -1.67774247
H     -1.87075714     3.96859381    -2.15053933
H     -0.58252407     3.17084169    -1.77960923
O      1.60954259    -3.04290753     1.53036305
H      0.65842849    -3.07749678     1.74545916
H      1.96710620    -2.26663730     2.00507084
O     -1.84749768    -0.92916854     3.16936612
H     -2.42366840    -0.37434822     2.61890681
H     -1.06369958    -0.37190759     3.38436481
O      2.22513624    -3.09413850    -0.99837469
H      2.88227181    -3.79105733    -1.08977609
H      1.99017082    -3.07948303    -0.02275854
O     -3.57764895     0.60042916     1.46505684
H     -4.44765215     0.74838340     1.84831745
H     -3.73087280     0.05697639     0.65771307
O     -0.29188080    -0.56461668    -3.75259415
H     -0.25280203    -1.42086828    -3.29625616
H     -1.10573897    -0.12324754    -3.42072712
O     -2.48971046     0.73765115    -2.78470750
H     -2.22307731     1.58423051    -2.38534021
H     -2.93898411     0.24358925    -2.07959638
O     -1.14768291    -3.15619582     2.01547295
H     -1.43114729    -3.86916980     2.59572095
H     -1.42737601    -2.30951496     2.47633957
O     -0.08921585    -3.08042930    -2.39438070
H     -0.13586670    -3.83927742    -2.98398146
H      0.77934548    -3.15444337    -1.93321293
O     -3.76178142    -0.88923220    -0.79127141
H     -4.59832291    -1.22537007    -1.12737541
H     -3.17257126    -1.69388848    -0.69954170
O     -2.21900716    -2.98260021    -0.54081277
H     -1.46763166    -3.03149906    -1.15878165
H     -1.83957475    -3.10072588     0.35232980
75
#isomer 2
O	-1.3653	-0.5677	1.6167
H	-0.9248	0.0695	0.9966
H	-1.9041	-1.1321	1.0084
O	2.8701	1.1648	-2.9982
H	2.3294	0.4382	-2.5888
H	3.1001	0.8596	-3.8845
O	-2.8730	1.1578	2.9981
H	-3.1021	0.8523	3.8845
H	-2.3305	0.4326	2.5887
O	4.4842	1.7937	-0.7395
H	4.0623	1.5562	-1.5881
H	3.9999	2.5932	-0.4528
O	0.9428	-1.8906	2.3209
H	0.0816	-1.4599	2.1079
H	0.7154	-2.8363	2.4304
O	-2.7089	-2.0193	-0.2403
H	-2.0852	-1.9318	-1.0025
H	-3.5012	-1.5076	-0.5062
O	-4.6167	-0.1706	-1.0618
H	-5.5502	-0.2950	-1.2732
H	-4.5949	0.5630	-0.3866
O	-0.9380	-1.8934	-2.3206
H	-0.0779	-1.4604	-2.1077
H	-0.7080	-2.8385	-2.4300
O	4.6172	-0.1585	1.0621
H	4.5935	0.5750	0.3867
H	5.5510	-0.2805	1.2735
O	-1.3755	3.4730	2.2738
H	-0.4322	3.2162	2.2355
H	-1.8279	2.7111	2.6846
O	2.5635	0.4368	2.9666
H	2.0386	-0.3844	2.9551
H	3.3441	0.2279	2.4180
O	1.2636	2.5648	1.8487
H	1.7795	1.8633	2.3178
H	1.9023	3.1160	1.3531
O	2.7593	3.9456	-0.0571
H	2.1845	3.8460	-0.8674
H	3.0336	4.8712	-0.0489
O	-0.2159	-4.6039	-2.0322
H	-0.0826	-5.2890	-2.6990
H	0.6105	-4.6126	-1.4745
O	1.3668	-0.5644	-1.6166
H	0.9246	0.0717	-0.9966
H	1.9070	-1.1273	-1.0082
O	-1.8378	-4.6211	0.3356
H	-1.4235	-4.7562	-0.5384
H	-2.3227	-3.7786	0.2264
O	-1.2703	2.5613	-1.8491
H	-1.7844	1.8585	-2.3181
H	-1.9104	3.1110	-1.3536
O	0.2280	-4.6030	2.0328
H	-0.5984	-4.6140	1.4752
H	0.0965	-5.2884	2.6997
O	-0.0014	1.0791	-0.0001
H	-0.4923	1.6721	-0.6237
H	0.4879	1.6734	0.6233
O	-4.4888	1.7823	0.7393
H	-4.0065	2.5830	0.4524
H	-4.0663	1.5461	1.5880
O	-2.7695	3.9386	0.0564
H	-2.1944	3.8405	0.8666
H	-3.0463	4.8635	0.0481
O	2.7141	-2.0121	0.2407
H	3.5051	-1.4984	0.5066
H	2.0901	-1.9262	1.0029
O	-2.5647	0.4297	-2.9666
H	-2.0377	-0.3901	-2.9549
H	-3.3447	0.2189	-2.4179
O	1.3664	3.4762	-2.2745
H	1.8208	2.7153	-2.6851
H	0.4238	3.2169	-2.2361
O	1.8499	-4.6162	-0.3349
H	2.3326	-3.7725	-0.2259
H	1.4359	-4.7523	0.5390
