33
# w11 434
O 1.92505127 -2.04798431 -1.40440686
H 2.64058782 -2.51595653 -1.84488942
H 1.88139718 -1.13738744 -1.79661449
O -0.85464742 2.72482765 -0.47526144
H 0.11475097 2.79185187 -0.56625335
H -1.10254701 1.93091033 -0.97714020
O 1.47355334 -1.62482719 1.43058431
H 1.75566066 -1.83657621 0.52439863
H 0.58767782 -2.01602054 1.51936928
O 1.46105425 0.41607168 -2.34430527
H 0.49421658 0.47738344 -2.36668100
H 1.74632888 1.11925523 -1.72623761
O -0.86663989 -2.37009892 -1.44424256
H 0.10220916 -2.45684350 -1.52448642
H -1.06883118 -2.64121028 -0.52899539
O -1.27357921 -2.54148462 1.33654542
H -1.71714404 -3.18704184 1.89468144
H -1.80983294 -1.70756174 1.36564528
O -2.56603202 -0.20862955 1.08262003
H -2.18348977 0.54051884 1.58009852
H -2.44185700 0.02291518 0.14936268
O -1.54698736 0.17704410 -1.78371084
H -2.17315785 0.22188141 -2.51433417
H -1.31055791 -0.79081100 -1.68027322
O -1.20616530 2.03535194 2.09278776
H -1.57222669 2.70824461 2.67481665
H -1.13091655 2.43624016 1.18842343
O 1.54980522 1.09759204 1.89186310
H 0.65845440 1.34353546 2.18962375
H 1.54810653 0.11771843 1.79542129
O 1.93570795 2.34604152 -0.38985900
H 2.67215369 2.96323209 -0.34789154
H 1.88299010 1.87967822 0.49761419