48
#boat-a w16
O 0.12742587 1.14684972 -1.58027855
H -0.71725804 1.53849679 -1.87225414
H -0.00427839 0.17400371 -1.58650759
O 4.23247769 -0.26271901 -1.24153281
H 4.97071820 -0.25118561 -1.85737926
H 3.72092881 0.57286259 -1.40972697
O -2.42866591 2.23165734 -1.85770461
H -2.68572875 3.03888825 -2.31286191
H -2.49329627 2.42735616 -0.88330238
O -4.23429048 0.26350591 1.23919725
H -3.72176515 -0.57149271 1.40711309
H -4.97199711 0.25127986 1.85568760
O 2.76159464 2.38202662 1.41229013
H 3.27367235 1.54634517 1.57145967
H 3.16989060 3.05563656 1.96351943
O 2.52685413 -2.46453621 -0.77925849
H 1.63876110 -2.24899979 -1.11640748
H 3.10657890 -1.74710268 -1.09353796
O -2.52476503 2.46384789 0.77992184
H -1.63736906 2.24746385 1.11841417
H -3.10585832 1.74726359 1.09349706
O -2.76186721 -2.38048819 -1.41506704
H -3.27465488 -1.54522054 -1.57436672
H -3.16870741 -3.05438894 -1.96703452
O -2.79264028 -1.95698424 1.44172471
H -1.85687894 -1.75682833 1.63115432
H -2.78903010 -2.31202936 0.53726329
O 4.08043374 0.07727714 1.57432064
H 3.56805875 -0.70756435 1.83742253
H 4.32624834 -0.10262958 0.64945285
O -0.11657254 -1.55258996 -1.14833997
H -0.97416083 -1.94951222 -1.39379643
H -0.16336722 -1.46208551 -0.17107250
O 2.79243517 1.95862738 -1.44410922
H 1.85680583 1.75649358 -1.63217101
H 2.78916008 2.31417338 -0.53981244
O -4.08049979 -0.07673860 -1.57722005
H -3.56777805 0.70839215 -1.83878183
H -4.32866081 0.10305124 -0.65302683
O -0.12623544 -1.14911860 1.58450896
H 0.71887096 -1.54099591 1.87520218
H 0.00519896 -0.17621894 1.59153759
O 2.43054159 -2.23102984 1.85838070
H 2.49447002 -2.42706168 0.88398964
H 2.68572680 -3.03885326 2.31351095
O 0.11727910 1.55092462 1.15243575
H 0.97484648 1.94864826 1.39674109
H 0.16355228 1.45911335 0.17525371