48
#boat-b w16
O -0.01751003 0.57324467 -1.88041768
H -0.01751108 -0.35665916 -1.56650646
H -0.90246837 0.72841828 -2.26052768
O 2.71097789 -1.00764992 2.45358399
H 3.09534015 -1.23777582 3.30440251
H 3.21783614 -0.21737120 2.12750606
O -4.02892163 -1.12759782 -1.28466763
H -3.62475238 -0.42084147 -1.81843744
H -4.30212492 -0.67725294 -0.46594747
O -2.70489614 1.13452577 -2.41161539
H -2.80490665 1.64016854 -1.55956050
H -3.07513918 1.69287470 -3.10155962
O 0.03664207 -0.55693921 1.84970688
H 0.93075980 -0.69218392 2.21935237
H 0.01473738 0.37306246 1.53633606
O 4.03056616 1.01373901 1.34823247
H 3.52108782 1.81315481 1.12600448
H 4.30130959 0.65662728 0.48392614
O -2.50299851 -1.69239092 2.12640718
H -1.60149538 -1.32616615 2.19217772
H -2.45450324 -2.33052007 1.39511426
O 2.83814600 -2.26353612 -0.13873012
H 1.89981118 -2.28679177 -0.40279642
H 2.81341095 -2.05153923 0.80943801
O -2.41422835 -3.05294298 -0.41554159
H -2.72900063 -3.91966469 -0.68754806
H -3.03456612 -2.39268992 -0.82215919
O 2.51572336 1.77895474 -2.00085796
H 1.65242920 1.35219162 -2.14948842
H 3.13952890 1.04238433 -1.86803209
O 2.39416562 3.09450276 0.29558009
H 2.63524331 4.02187878 0.21438078
H 2.47045261 2.70530808 -0.61754650
O -0.11879678 1.86341209 0.55878718
H -0.04240713 1.45794065 -0.33375043
H 0.65744122 2.45057343 0.61803040
O -2.85689313 2.23501545 -0.00605384
H -1.95010988 2.26613499 0.34855418
H -3.33475390 1.59973201 0.55743665
O -4.23893656 0.12309170 1.25905612
H -4.96773943 0.22687949 1.87748583
H -3.61605528 -0.53030149 1.67465357
O 4.26737543 -0.27342457 -1.17162040
H 3.75296787 -1.06726027 -0.86827457
H 5.02174209 -0.61607661 -1.65929984
O 0.09017475 -1.84611053 -0.58022569
H -0.70280493 -2.41294365 -0.63476922
H 0.03166201 -1.43420184 0.31061075