75
#isomer 2
O	-1.3653	-0.5677	1.6167
H	-0.9248	0.0695	0.9966
H	-1.9041	-1.1321	1.0084
O	2.8701	1.1648	-2.9982
H	2.3294	0.4382	-2.5888
H	3.1001	0.8596	-3.8845
O	-2.8730	1.1578	2.9981
H	-3.1021	0.8523	3.8845
H	-2.3305	0.4326	2.5887
O	4.4842	1.7937	-0.7395
H	4.0623	1.5562	-1.5881
H	3.9999	2.5932	-0.4528
O	0.9428	-1.8906	2.3209
H	0.0816	-1.4599	2.1079
H	0.7154	-2.8363	2.4304
O	-2.7089	-2.0193	-0.2403
H	-2.0852	-1.9318	-1.0025
H	-3.5012	-1.5076	-0.5062
O	-4.6167	-0.1706	-1.0618
H	-5.5502	-0.2950	-1.2732
H	-4.5949	0.5630	-0.3866
O	-0.9380	-1.8934	-2.3206
H	-0.0779	-1.4604	-2.1077
H	-0.7080	-2.8385	-2.4300
O	4.6172	-0.1585	1.0621
H	4.5935	0.5750	0.3867
H	5.5510	-0.2805	1.2735
O	-1.3755	3.4730	2.2738
H	-0.4322	3.2162	2.2355
H	-1.8279	2.7111	2.6846
O	2.5635	0.4368	2.9666
H	2.0386	-0.3844	2.9551
H	3.3441	0.2279	2.4180
O	1.2636	2.5648	1.8487
H	1.7795	1.8633	2.3178
H	1.9023	3.1160	1.3531
O	2.7593	3.9456	-0.0571
H	2.1845	3.8460	-0.8674
H	3.0336	4.8712	-0.0489
O	-0.2159	-4.6039	-2.0322
H	-0.0826	-5.2890	-2.6990
H	0.6105	-4.6126	-1.4745
O	1.3668	-0.5644	-1.6166
H	0.9246	0.0717	-0.9966
H	1.9070	-1.1273	-1.0082
O	-1.8378	-4.6211	0.3356
H	-1.4235	-4.7562	-0.5384
H	-2.3227	-3.7786	0.2264
O	-1.2703	2.5613	-1.8491
H	-1.7844	1.8585	-2.3181
H	-1.9104	3.1110	-1.3536
O	0.2280	-4.6030	2.0328
H	-0.5984	-4.6140	1.4752
H	0.0965	-5.2884	2.6997
O	-0.0014	1.0791	-0.0001
H	-0.4923	1.6721	-0.6237
H	0.4879	1.6734	0.6233
O	-4.4888	1.7823	0.7393
H	-4.0065	2.5830	0.4524
H	-4.0663	1.5461	1.5880
O	-2.7695	3.9386	0.0564
H	-2.1944	3.8405	0.8666
H	-3.0463	4.8635	0.0481
O	2.7141	-2.0121	0.2407
H	3.5051	-1.4984	0.5066
H	2.0901	-1.9262	1.0029
O	-2.5647	0.4297	-2.9666
H	-2.0377	-0.3901	-2.9549
H	-3.3447	0.2189	-2.4179
O	1.3664	3.4762	-2.2745
H	1.8208	2.7153	-2.6851
H	0.4238	3.2169	-2.2361
O	1.8499	-4.6162	-0.3349
H	2.3326	-3.7725	-0.2259
H	1.4359	-4.7523	0.5390