18
# w6 min
O -1.22192514 -1.90531150 -0.21831144
H -1.94970806 -2.52152463 -0.36789654
H -1.62939552 -1.00895480 -0.22517819
O 1.04637687 -1.13295004 1.45658111
H 1.42897982 -1.13757348 0.55267154
H 0.22407314 -1.63110000 1.30814557
O 0.26034352 1.42866464 1.49801350
H 0.59137094 0.49652671 1.60457322
H 0.47875020 1.88447663 2.32002539
O 1.36252391 -1.04490866 -1.33461434
H 0.48734391 -1.47004498 -1.31362353
H 1.15791861 -0.10613741 -1.49622451
O 0.58341922 1.77028882 -1.24951144
H 1.08164004 2.50915589 -1.62137895
H 0.65772581 1.86276678 -0.27756493
O -1.97606364 0.74640806 -0.17154161
H -1.51211727 1.15947803 -0.91783365
H -1.45543723 1.06499114 0.58880184







