27
#w9 D2hDDh
O  -0.42490   1.08658  -2.04989
H   0.31469   1.45595  -1.51957
H  -1.22361   1.31780  -1.52874
O  -0.32301  -1.09160   2.06929
H  -0.30434  -0.09057   2.02022
H  -0.35840  -1.30643   3.01419
O  -2.40405  -1.36054   0.17957
H  -1.84344  -1.62818  -0.58146
H  -1.79609  -1.43955   0.94695
O  -0.41095  -1.58518  -1.80093
H  -0.45074  -1.98208  -2.68479
H  -0.36226  -0.59546  -1.95168
O   1.53889   2.00943  -0.21682
H   2.01082   2.83028  -0.42634
H   2.24378   1.30229  -0.15070
O  -2.46623   1.30005  -0.11346
H  -3.37502   1.63599  -0.15169
H  -2.54426   0.30584  -0.00378
O   3.31891   0.01188  -0.08276
H   3.87680  -0.04420   0.70781
H   2.72961  -0.79354  -0.03113
O  -0.40598   1.57669   1.79169
H  -1.21128   1.66821   1.23760
H   0.32329   1.84448   1.19140
O   1.57802  -2.03019   0.17164
H   0.97171  -2.01719  -0.59974
H   0.99309  -1.80066   0.92481